/*--------------------------------*- C++ -*----------------------------------*\
  =========                 |
  \\      /  F ield         | OpenFOAM: The Open Source CFD Toolbox
   \\    /   O peration     | Website:  https://openfoam.org
    \\  /    A nd           | Version:  13
     \\/     M anipulation  |
\*---------------------------------------------------------------------------*/
FoamFile
{
    format      ascii;
    class       extendedFeatureEdgeMesh;
    location    "constant/extendedFeatureEdgeMesh";
    object      corpo.extendedFeatureEdgeMesh;
}
// * * * * * * * * * * * * * * * * * * * * * * * * * * * * * * * * * * * * * //

// points

206
(
(-0.0361475 0.0362937 0.00975594)
(-0.0240255 0.0410023 0.0141872)
(-0.0175316 0.0384295 0.00829625)
(-0.0323152 0.0362154 0.00226645)
(-0.0210135 0.0358852 0.0212727)
(-0.0149111 0.0358556 0.01166)
(-0.0167291 0.0387103 -0.00123956)
(-0.0174108 0.0385811 -0.00123956)
(-0.0164349 0.0382232 -0.00123956)
(-0.0326815 0.0292784 -0.00123956)
(0.0136215 0.0314855 0.00748325)
(0.0167804 0.0307703 0.0188603)
(-0.0182394 0.0300381 0.0659352)
(0.00223018 0.0237257 0.0653364)
(-0.0170027 0.0313487 0.052838)
(-0.0135739 0.0291437 -0.00123956)
(0.00252903 0.0268541 0.0388978)
(-0.0139263 0.0277837 -0.00123956)
(-0.0427038 0.0198196 0.027681)
(0.0298624 0.0265525 0.0374698)
(0.0270121 0.0219566 0.0278468)
(0.0261555 0.027918 -0.00123956)
(0.0232724 0.026121 0.068793)
(0.0119724 0.0242729 -0.00123956)
(-0.00757095 0.0199332 0.0758753)
(0.0267193 0.027296 -0.00123956)
(0.011829 0.0239543 -0.00123956)
(0.0273484 0.0202621 -0.00123956)
(-0.0487337 0.0142637 0.0200939)
(-0.043174 0.0177997 0.0456041)
(0.0120503 0.0229921 -0.00123956)
(0.0251988 0.0183636 -0.00123956)
(-0.0480499 0.00978632 0.0502752)
(0.0243385 0.0179844 -0.00123956)
(0.0284468 -0.00387194 0.0645959)
(0.0505679 -0.000536879 0.0353075)
(0.0434013 0.00346268 0.0505328)
(-0.0321664 0.00493701 0.0897789)
(0.000687861 -0.0119714 0.07759)
(0.0300402 -0.00475368 0.0173826)
(-0.0372639 -0.00101509 0.086122)
(-0.0184013 -0.00769361 0.0025859)
(0.0506366 -0.00608648 0.0321877)
(-0.0497204 -0.00735201 0.0502133)
(0.0388128 -0.00587405 0.057325)
(-0.0282197 -0.00370954 0.0934202)
(0.0383181 -0.0178658 0.0517891)
(-0.0390762 -0.0148583 -0.00123956)
(0.00326495 -0.0197982 0.0707854)
(-0.038134 -0.0209367 0.0642622)
(0.0218976 -0.0231685 -0.00123956)
(0.0226388 -0.0235562 -0.00123956)
(-0.0449526 -0.0255004 0.0134436)
(0.0280727 -0.0329149 0.0377058)
(-0.0203078 -0.03353 0.0621543)
(0.0150803 -0.0230101 -0.00123956)
(0.0209142 -0.030769 0.0698368)
(-0.000367511 -0.0252704 0.0715317)
(-0.0397396 -0.0281522 0.000959117)
(0.0265543 -0.026087 0.0588801)
(0.00981034 -0.0281052 -0.00123956)
(0.00373924 -0.0244144 0.0623475)
(0.00962276 -0.0291629 -0.00123956)
(-0.00184783 -0.0316451 0.0332987)
(-0.0173386 -0.0310768 0.0483978)
(-0.00418977 -0.0298919 0.0639222)
(0.0155507 -0.0330107 0.0180791)
(-0.0372237 -0.0385691 0.0112798)
(0.0241002 -0.0279819 -0.00123956)
(0.0211656 -0.0310894 -0.00123956)
(-0.025051 -0.0326278 0.0532564)
(-0.0341185 -0.0361449 0.00247496)
(0.00803891 -0.0359911 0.0214023)
(-0.0266786 -0.0341073 0.0251396)
(0.0188406 -0.032536 -0.00123956)
(-0.0227568 -0.0399522 0.0146024)
(0.00877522 -0.035942 0.0093401)
(-0.018383 -0.0391059 -0.000730451)
(-0.000749427 0.0155856 0.0500563)
(0.00958068 0.00902726 0.0154738)
(0.0034963 0.00595414 0.0588874)
(0.00704328 0.00647182 0.0579852)
(-0.0354841 -0.0157775 0.0391334)
(-0.0246858 -0.0182067 0.00543824)
(-0.000848998 -0.0199866 0.0504505)
(-0.0226666 0.0383077 0.00428812)
(-0.0156257 0.0318301 0.00148943)
(0.0217106 0.0278971 0.00145521)
(-0.0167146 0.0321445 -0.00123956)
(0.00757551 0.024726 0.0396687)
(-0.0157416 0.0229345 0.00997312)
(-0.0153753 0.0283843 0.0198956)
(-0.0232207 0.0290614 0.0269858)
(-0.000565226 0.0287837 0.0267227)
(-0.0112815 0.0216238 0.0438102)
(0.0182415 0.0179933 0.0244716)
(0.0179942 0.022503 0.0294273)
(-0.000950243 0.0257791 0.0178078)
(-0.0167964 0.0258363 0.00110965)
(0.0148362 0.0241557 0.0535613)
(-0.0354838 0.0154167 0.037981)
(0.0246081 0.0210763 0.00343903)
(0.0071062 0.0152334 0.00913114)
(-0.0248832 0.0176214 0.00407063)
(0.031884 0.00910468 0.0211336)
(0.0077325 0.0168817 0.055548)
(0.0281594 0.0166524 0.0605139)
(0.0210646 0.00908437 0.064875)
(-0.0270507 0.00663886 0.0819138)
(0.0253443 0.0189626 -0.00123956)
(-0.0366605 0.0184144 -0.00123956)
(0.00728234 0.0136309 0.062828)
(-0.0464491 0.00931191 0.0588719)
(0.00341227 0.00665876 0.0772072)
(0.0100962 0.0132957 0.0139095)
(-0.0467461 -0.0010283 0.0427692)
(0.01039 0.00883783 0.0622557)
(-0.0489457 0.00523162 0.0258621)
(0.0096454 -0.00147385 0.0649527)
(-0.0243269 0.00286957 0.0854666)
(0.0157644 -0.00480548 0.0118361)
(0.00556603 0.00453506 0.0655835)
(-0.0342471 0.000568423 0.0799639)
(-0.0341163 0.00318036 0.086303)
(-0.0274056 0.000883074 0.0909902)
(0.0220778 -0.00882724 0.0170589)
(-0.0415911 -0.00539358 0.0386255)
(-0.0213351 -0.00517832 0.084737)
(0.0159609 -0.0141031 0.0641118)
(-0.0342112 -0.00230442 0.0876229)
(-0.0292346 -0.00618739 0.0897421)
(-0.0306871 -0.00852313 0.0799929)
(-0.0427403 -0.0226777 0.0531719)
(0.0058963 -0.00998625 0.0620121)
(0.00315877 -0.0198674 0.00903273)
(-0.0350711 -0.0182261 -0.00123956)
(0.0146276 -0.0195618 0.0207329)
(0.0104874 -0.0173239 0.0126657)
(0.00269745 -0.0211852 0.0558682)
(0.0258184 -0.0181818 0.0631363)
(-0.017414 -0.0259967 0.0126991)
(0.0112685 -0.0222704 0.060373)
(0.00772858 -0.0257925 0.0523001)
(-0.0231159 -0.0287238 -0.00100252)
(-0.00615961 -0.0293888 0.0204271)
(-0.0310116 -0.0281981 0.0279879)
(-0.029107 -0.0208642 0.038763)
(-0.0128866 -0.0247696 0.0437207)
(0.00609523 -0.0287119 0.0380508)
(0.0150607 -0.0266803 0.0285597)
(-0.0259808 -0.036338 -0.000857751)
(0.0222176 -0.0268298 0.00170339)
(0.0226931 -0.02834 -0.00123956)
(-0.0197374 -0.0325714 0.00253429)
(-0.0218422 -0.0301828 0.0253718)
(-0.017581 -0.0307195 -0.00102007)
(0.0137785 -0.0331647 0.000818164)
(-0.0207291 -0.037368 0.00122885)
(-0.0179238 -0.0373741 0.0106855)
(-0.0299592 0.0359372 0.0212583)
(-0.0394875 0.0315769 0.0191904)
(0.00867069 0.0329237 0.0215106)
(-0.0336999 0.0274058 -0.00123956)
(-0.0202676 0.0259166 -0.00123956)
(-0.0270021 0.0236071 -0.000543609)
(-0.0334283 0.0238787 0.0441391)
(0.0153043 0.0250497 -0.00123956)
(0.0127127 0.0247283 -0.00123956)
(0.0207579 0.0258112 0.066824)
(0.0410659 0.0176653 0.033744)
(0.0274403 0.0230561 0.0539164)
(-0.0377945 0.0190471 -0.00123956)
(-0.0404414 0.0291174 0.00665811)
(-0.0378718 0.0183948 -0.00123956)
(-0.0400465 0.023522 0.0526158)
(-0.0334991 0.0204779 -0.00123956)
(0.0235137 0.018035 -0.00123956)
(-0.0354282 0.0176256 -0.00123956)
(-0.0166333 0.0103771 0.00252518)
(0.0473621 0.00451002 0.0287028)
(0.0364732 0.0120132 0.0550854)
(-0.0380228 0.0178778 -0.00123956)
(-0.038117 0.0163522 -0.00123956)
(-0.00941401 -0.0117669 0.00387054)
(-0.0498685 -0.00630353 0.0249948)
(-0.0318215 -0.0150368 -0.00123956)
(-0.0429744 -0.00558172 0.0033373)
(-0.0347146 -0.00038674 -0.00123956)
(0.039275 -0.0239955 0.0321865)
(-0.0384227 -0.0181823 -0.00123956)
(0.020489 -0.0233074 -0.00123956)
(-0.0468343 -0.0176467 0.0170857)
(-0.0384014 -0.0189709 -0.00123956)
(-0.0249293 -0.0274154 -0.00123956)
(-0.00659474 -0.019162 0.0777644)
(-0.0385553 -0.0225049 -0.00123956)
(0.000719721 -0.0315373 0.0095005)
(-0.0321465 -0.026298 0.0448396)
(0.0228707 -0.0249114 -0.00123956)
(-0.0122149 -0.0325945 0.0563312)
(0.0219897 -0.0300088 0.0565184)
(0.0311434 -0.0292766 0.0310831)
(-0.0181103 -0.0339236 0.0194842)
(0.011583 -0.0303491 -0.00123956)
(-0.020893 0.0213749 0.0420245)
(0.0145658 0.0144085 0.0623155)
)

// edges

289
(
(0 1)
(1 2)
(3 0)
(159 1)
(4 1)
(5 2)
(85 6)
(6 7)
(7 3)
(0 160)
(86 2)
(5 86)
(86 8)
(8 6)
(7 9)
(161 10)
(87 10)
(11 87)
(88 8)
(9 162)
(91 5)
(4 92)
(13 14)
(14 12)
(86 15)
(15 88)
(16 161)
(94 14)
(163 164)
(11 96)
(93 91)
(92 16)
(165 14)
(166 167)
(17 15)
(98 17)
(97 91)
(160 18)
(19 20)
(16 89)
(87 21)
(21 166)
(90 98)
(89 99)
(168 22)
(99 168)
(167 23)
(19 169)
(22 170)
(163 17)
(20 96)
(170 19)
(12 24)
(25 21)
(101 25)
(23 26)
(26 97)
(102 90)
(18 100)
(101 27)
(27 25)
(162 171)
(103 98)
(172 28)
(28 18)
(171 173)
(29 174)
(30 102)
(26 30)
(22 106)
(22 107)
(109 27)
(110 175)
(30 176)
(95 31)
(31 109)
(29 32)
(13 111)
(111 105)
(177 110)
(178 177)
(33 114)
(176 33)
(33 31)
(179 169)
(111 116)
(115 32)
(32 112)
(28 117)
(116 118)
(180 36)
(36 35)
(24 119)
(121 111)
(120 102)
(104 120)
(173 181)
(108 123)
(37 119)
(123 37)
(37 124)
(124 119)
(113 118)
(38 113)
(39 104)
(40 123)
(122 40)
(181 182)
(183 41)
(35 42)
(117 126)
(115 43)
(34 44)
(44 36)
(184 117)
(45 124)
(123 45)
(124 127)
(40 129)
(129 130)
(130 127)
(44 46)
(45 130)
(131 129)
(39 125)
(43 132)
(131 130)
(41 185)
(47 186)
(187 47)
(134 183)
(188 42)
(135 185)
(47 189)
(38 48)
(139 34)
(133 141)
(49 131)
(132 49)
(137 50)
(50 190)
(136 51)
(51 50)
(52 191)
(189 192)
(138 142)
(143 193)
(193 135)
(55 134)
(190 55)
(128 56)
(56 139)
(144 140)
(57 48)
(194 57)
(58 195)
(196 144)
(146 197)
(59 46)
(192 195)
(58 52)
(55 60)
(49 54)
(48 61)
(61 138)
(62 196)
(60 62)
(147 64)
(61 65)
(142 56)
(54 65)
(65 57)
(149 66)
(52 67)
(56 59)
(151 68)
(68 198)
(148 53)
(65 199)
(56 200)
(198 51)
(200 53)
(151 69)
(69 152)
(152 68)
(63 154)
(201 53)
(153 155)
(155 143)
(66 151)
(154 202)
(199 64)
(132 70)
(58 71)
(145 73)
(73 154)
(70 54)
(74 156)
(203 74)
(62 203)
(72 63)
(150 71)
(74 69)
(156 76)
(73 75)
(77 150)
(158 157)
(202 158)
(76 72)
(75 158)
(77 155)
(157 77)
(71 67)
(67 75)
(85 86)
(86 88)
(92 91)
(91 90)
(96 95)
(89 96)
(97 93)
(94 204)
(86 98)
(98 164)
(100 204)
(101 87)
(90 103)
(97 102)
(99 205)
(107 106)
(101 109)
(78 94)
(103 110)
(111 78)
(114 102)
(95 114)
(116 105)
(79 102)
(95 79)
(120 79)
(113 121)
(80 111)
(121 80)
(81 111)
(80 81)
(81 116)
(81 118)
(122 108)
(123 119)
(80 118)
(123 124)
(104 125)
(115 112)
(100 126)
(119 127)
(130 123)
(122 129)
(124 130)
(122 131)
(133 118)
(127 131)
(82 117)
(82 126)
(83 135)
(136 120)
(136 137)
(138 133)
(128 139)
(137 134)
(132 131)
(141 128)
(140 83)
(142 133)
(134 144)
(146 82)
(147 146)
(147 84)
(138 84)
(84 148)
(136 149)
(152 151)
(153 143)
(154 140)
(145 154)
(148 149)
(151 156)
(153 157)
(157 155)
(158 150)
)

// concaveStart mixedStart nonFeatureStart
78 85 159
// internalStart flatStart openStart multipleStart
214 289 289 289
// normals

356
(
(-0.254157 0.9238 -0.286352)
(-0.433869 0.857884 0.275307)
(0.163211 0.957403 -0.238204)
(0.525181 0.822084 0.219916)
(-0.189236 0.976081 -0.107031)
(-0.716493 0.589631 -0.37279)
(-0.446695 0.861304 0.242114)
(0.00377763 0.811449 0.584411)
(0.532011 0.777501 0.335345)
(0.824794 0.503526 -0.257249)
(-0.184639 0.974521 -0.12735)
(0.618408 0.373437 0.69146)
(0 0 -1)
(-0.18464 0.97452 -0.127351)
(-0.271404 0.445521 -0.853142)
(-0.850106 0.525212 -0.038367)
(0.424985 0.706464 -0.565948)
(0.997207 -0.0579423 -0.0471334)
(0.618406 0.373437 0.691461)
(0.926249 -0.0426166 -0.374496)
(0 0 -1)
(-0.243632 0.952326 -0.183626)
(0.253679 0.96724 -0.00963354)
(0.376068 0.925437 -0.0462433)
(-0.0982014 0.791651 -0.60303)
(0.88542 0.428492 0.180072)
(0 0 -1)
(-0.668235 0.363385 -0.649163)
(0.744453 0.473084 0.471148)
(0.997954 -0.0639174 -0.00173351)
(0.642704 0.358831 0.676884)
(0.00249797 0.641473 0.767142)
(0.295734 0.947354 0.122727)
(0.556771 0.716967 -0.419481)
(-0.321496 0.944733 0.0641856)
(0.678378 0.710017 -0.188889)
(0.693203 -0.179625 0.698)
(0 0 -1)
(-0.291955 0.930392 0.221658)
(0.301313 0.862119 0.407384)
(0.110731 0.71038 -0.695053)
(-0.0872279 -0.0455289 -0.995147)
(0.257559 -0.874746 -0.410467)
(0.994557 0.0968245 -0.0384864)
(0.589421 0.667712 0.454691)
(-0.110683 0.976871 0.182955)
(0.122989 0.938813 -0.321719)
(0.0856079 0.996329 -0.000428295)
(-0.141631 0.872401 0.467822)
(0.0303518 0.729266 -0.683556)
(-0.312976 0.927299 -0.205335)
(-0.0982021 0.791651 -0.60303)
(0 0 -1)
(0.693204 -0.179624 0.698)
(0.257558 -0.874745 -0.410468)
(0.00345574 0.636926 -0.770917)
(-0.422929 0.603707 0.675773)
(-0.960835 0.276478 0.0188745)
(-0.114023 0.909193 -0.400458)
(0.436039 0.754998 -0.489742)
(0.0967127 0.533701 0.840125)
(-0.23611 0.89326 -0.382543)
(0.468 0.424272 0.775222)
(0 0 -1)
(0.968563 -0.178182 -0.173602)
(0.619345 -0.721379 -0.309877)
(-0.073649 0.994126 0.0793026)
(-0.619537 0.701328 0.35258)
(-0.0389351 0.993536 -0.106631)
(-0.620685 0.081465 0.779816)
(-0.874595 0.337184 0.348412)
(-0.448189 0.728703 -0.517801)
(0 0 -1)
(0.651776 0.686612 0.322107)
(0.0904794 0.980119 -0.176577)
(0.930751 0.307826 0.197345)
(0 -0 -1)
(0.0269594 0.982223 -0.185774)
(-0.0734054 0.735783 -0.673227)
(0.0787046 0.972686 0.218376)
(0.738183 0.629494 0.242537)
(0.263371 0.803388 0.534045)
(-0.164767 0.597784 0.784542)
(0.468 0.424272 0.775222)
(0.866105 0.0774665 0.493824)
(-0.764178 0.343943 -0.545651)
(-0.764178 0.343944 -0.545651)
(-0.823674 -0.189513 -0.534459)
(0.266003 0.840742 -0.471589)
(0.136363 0.498185 -0.856281)
(-0.338547 0.75586 0.560412)
(-0.803854 0.0650143 0.591263)
(0.4934 -0.760905 0.421402)
(0 -0 -1)
(-0.680237 0.333222 -0.652871)
(0 0 -1)
(0.247701 -0.53498 -0.807738)
(-0.779884 0.599163 0.181063)
(-0.894271 0.105946 -0.434805)
(-0.894271 0.105949 -0.434804)
(-0.529787 0.757354 -0.381761)
(-0.861456 0.506976 -0.029491)
(-0.823674 -0.189512 -0.534459)
(-0.298569 -0.690451 -0.658889)
(0 0 -1)
(0.68459 -0.24648 0.685992)
(-0.324556 -0.171846 0.930125)
(0.327324 -0.501491 -0.800854)
(0 0 -1)
(0.940578 -0.22847 0.251226)
(0.401469 -0.910878 0.0955172)
(0 0 -1)
(-0.844569 0.232831 -0.482174)
(0.770751 0.487633 -0.41007)
(0.858001 0.33202 0.391914)
(-0.364737 0.858387 0.360747)
(0.821551 0.499952 0.274046)
(0.368133 0.575093 -0.730579)
(0 0 -1)
(0.368133 0.575091 -0.730581)
(0.209296 0.03514 -0.977221)
(-0.0574576 -0.937181 -0.344079)
(0.401468 -0.910879 0.0955169)
(0 0 -1)
(0.886367 0.455657 -0.0820365)
(0.495419 0.507315 -0.705119)
(-0.565299 -0.449154 0.69188)
(-0.958799 -0.230675 0.16581)
(-0.862354 0.470683 0.186556)
(-0.759944 0.362427 0.539566)
(-0.999602 0.0274998 0.00631792)
(-0.360121 0.260315 0.895851)
(-0.821841 0.198974 0.533841)
(0.812928 0.528921 0.243703)
(0.684367 0.178044 0.707066)
(0.870775 -0.180594 0.457315)
(0.236728 0.288946 0.927615)
(-0.173224 0.606344 0.776106)
(0.97168 -0.12205 0.202343)
(0.901607 -0.272013 -0.336324)
(0.915734 0.400307 0.0344336)
(0.561405 0.132296 -0.816898)
(0.0951372 0.474622 -0.875033)
(0.579482 -0.13423 -0.803855)
(-0.88038 0.257262 -0.398431)
(0 0 -1)
(0.082059 0.714344 0.694967)
(-0.564628 0.767143 -0.304445)
(-0.00976163 0.894646 -0.446669)
(0.473408 0.711233 0.519646)
(-0.600726 -0.525422 0.602545)
(0.804608 0.250293 0.538478)
(0.828762 0.557202 0.0517587)
(0.852804 -0.114241 0.509583)
(0.288115 -0.0224628 0.957332)
(0.473329 0.170925 -0.864144)
(-0.100451 0.272378 -0.956932)
(-0.774217 0.590657 -0.227404)
(-0.351842 0.224758 0.908675)
(-0.218005 -0.914115 -0.34186)
(-0.79311 0.0489566 -0.607108)
(0.134169 -0.0164561 -0.990822)
(-0.0957542 -0.485354 -0.869058)
(0.932245 0.186009 -0.310355)
(0.880158 -0.224287 0.41835)
(-0.742985 0.237424 0.625783)
(-0.861026 -0.50258 0.0777662)
(-0.95147 0.26663 -0.153667)
(-0.817169 -0.235136 -0.526257)
(0.587829 0.175758 0.789662)
(0.479331 -0.384073 0.789132)
(0.9167 -0.198035 0.347049)
(-0.996644 0.0807445 -0.0134881)
(-0.700202 0.00233635 0.713941)
(-0.383585 0.484107 0.78645)
(0.966688 -0.230375 -0.111546)
(-0.855617 -0.287979 0.430102)
(0.539092 -0.279695 0.79445)
(-0.22245 0.231742 0.947002)
(-0.660886 -0.701557 0.266547)
(0.242893 -0.950935 0.191639)
(-0.922945 -0.36181 -0.131397)
(0.20969 -0.336942 -0.917878)
(-0.895919 -0.357023 0.264318)
(-0.848764 -0.442465 -0.289524)
(0.265101 0.0177373 -0.964057)
(0.474171 -0.483144 -0.736026)
(-0.556415 0.167697 -0.813806)
(-0.896545 -0.176248 -0.406379)
(0 0 -1)
(0.194196 -0.294825 -0.93561)
(-0.155921 -0.691503 -0.705346)
(0.826588 -0.524406 0.204329)
(0.726312 -0.460743 -0.510085)
(0.474171 -0.483144 -0.736026)
(0 -0 -1)
(-0.896545 -0.176248 -0.406379)
(0.946614 0.0328791 0.320689)
(0.487449 -0.475933 0.732039)
(0.0523429 -0.110843 0.992459)
(0.661898 -0.19539 0.72368)
(-0.295375 -0.25214 0.921509)
(-0.761679 -0.401016 0.508951)
(-0.924827 0.0849374 0.370785)
(-0.369504 -0.636383 0.677114)
(-0.465213 -0.824315 0.322618)
(-0.0877998 0.89054 -0.446351)
(0.46351 0.886056 0.0079208)
(0 0 -1)
(0.463511 0.886056 0.00792111)
(0.936378 0.160256 0.312273)
(-0.908826 -0.0246346 -0.416447)
(-0.891697 -0.347918 0.289532)
(-0.908827 -0.0246308 -0.416445)
(0 0 -1)
(0.139465 -0.506613 0.850819)
(-0.578534 -0.789736 0.203997)
(0.463907 0.511994 -0.722947)
(-0.15386 -0.378603 -0.912681)
(0 -0 -1)
(0.0533386 0.970525 -0.235023)
(-0.484997 0.501639 -0.716336)
(0 0 -1)
(0.245251 0.379358 0.892154)
(-0.675825 0.0517065 0.735247)
(0.903277 -0.135165 0.407212)
(0.308096 -0.620587 -0.721075)
(-0.227861 -0.969188 -0.0935671)
(0.547658 -0.254846 0.796947)
(0.809748 -0.494421 0.315999)
(-0.196414 -0.791193 0.579168)
(-0.0598263 -0.351233 -0.934375)
(-0.918995 0.0400182 -0.392233)
(-0.823091 0.150074 -0.547722)
(-0.415456 -0.905776 -0.0834623)
(-0.465085 -0.53152 -0.707942)
(0.0211846 -0.750502 -0.660528)
(0.642019 -0.316274 0.698415)
(0.61366 -0.781605 0.111871)
(-0.918995 0.0400185 -0.392233)
(0 0 -1)
(-0.78273 -0.588744 -0.201778)
(0 0 -1)
(-0.547498 -0.810104 0.209708)
(0.977591 0.202911 -0.0560568)
(0.442786 -0.772038 -0.455958)
(-0.777286 0.137849 -0.61386)
(-0.44034 -0.72769 -0.525898)
(0.000640997 -0.595944 -0.803026)
(0.517476 -0.714473 -0.470901)
(0.583226 -0.790465 0.187117)
(-0.794481 -0.34578 0.499236)
(-0.261937 -0.962082 -0.0760698)
(0.10724 -0.776692 0.620685)
(0.204877 -0.970268 0.128859)
(0.997715 0.0673005 0.00599721)
(0.607645 -0.666933 0.43124)
(-0.799212 -0.521995 0.297962)
(-0.815699 -0.415826 -0.40215)
(0.64898 -0.760753 0.00898114)
(0.847098 0.339201 0.409106)
(0.217283 -0.853734 0.473209)
(0 -0 -1)
(-0.180064 -0.959377 0.217192)
(-0.180355 -0.913049 -0.365805)
(0.594543 -0.711061 -0.37538)
(0.936377 0.160258 0.312274)
(0 0 -1)
(0.623484 -0.716746 0.31232)
(-0.297052 -0.953486 0.0512387)
(0.814272 -0.452399 0.363726)
(0.366126 -0.588467 0.720874)
(0 0 -1)
(0.0484152 -0.95334 -0.297991)
(-0.151363 -0.967339 0.203335)
(-0.0605108 -0.862741 -0.502012)
(0.552758 -0.811506 -0.189515)
(0.2799 0.771266 0.571669)
(0.878053 -0.285966 0.383728)
(-0.0150932 -0.0330685 -0.999339)
(0.927463 -0.0100965 0.37378)
(0.60311 -0.795772 -0.0548205)
(0.881713 0.259698 0.393876)
(0.273685 -0.72383 0.633377)
(0.0557534 -0.973397 -0.222236)
(-0.475504 -0.847359 -0.236386)
(-0.354188 -0.408625 -0.841176)
(0.200472 -0.302209 0.931923)
(-0.378944 -0.612329 0.693869)
(0.508083 -0.658967 0.554631)
(0.0305859 -0.992665 -0.116963)
(-0.203767 -0.676253 -0.707927)
(0.366126 -0.588467 0.720873)
(0 0 -1)
(-0.420552 -0.907087 -0.0181325)
(0.0914602 -0.908444 0.407878)
(-0.14971 -0.938485 -0.31118)
(-0.424176 -0.757691 -0.495963)
(0.436384 -0.899009 -0.0367808)
(-0.182236 -0.887037 0.424212)
(0.00864166 -0.0222584 -0.999715)
(-0.321891 -0.865996 0.382672)
(0.951768 -0.119911 -0.282416)
(-0.216326 -0.974251 0.0635456)
(0.997778 -0.0520662 0.0415605)
(0.625298 -0.721923 0.296361)
(-0.480002 -0.876651 -0.0328699)
(0.376052 -0.9264 0.0191835)
(0.27161 -0.923045 -0.272426)
(0.626146 -0.0329801 0.779008)
(-0.0429179 -0.974795 -0.218934)
(-0.76944 0.614589 -0.173904)
(-0.1222 0.831564 0.541819)
(-0.441996 0.769166 0.461545)
(-0.0179466 0.591167 -0.80635)
(0.263024 0.478284 -0.837892)
(-0.436844 0.607744 0.663186)
(0.362192 0.186698 0.913215)
(0.940578 -0.228468 0.251226)
(0.630654 0.627173 -0.457088)
(0.0258204 0.740132 0.671965)
(0.327323 -0.501489 -0.800855)
(-0.0574569 -0.937181 -0.344078)
(0.74595 -0.30674 -0.591159)
(0.816255 -0.283127 -0.503554)
(-0.561092 0.41288 0.71743)
(0.424836 0.40308 -0.810581)
(0.280521 -0.544216 0.790656)
(0.813698 0.566216 -0.131511)
(0.088559 0.672955 0.734363)
(-0.612015 0.539908 0.577873)
(-0.548543 0.135432 -0.825081)
(0.317462 0.0320989 0.947728)
(-0.732835 -0.284981 0.61785)
(0.859214 -0.457518 0.228973)
(-0.278421 -0.201755 0.93903)
(-0.213853 -0.548539 0.808314)
(-0.45068 -0.306075 -0.838573)
(0.463905 0.511991 -0.72295)
(0.335844 -0.505181 -0.794985)
(0.783867 -0.363779 -0.503208)
(0.963149 -0.268717 -0.0116564)
(0.500623 -0.265634 -0.823903)
(-0.0878005 0.89054 -0.446351)
(-0.687867 -0.467057 0.555606)
(0.356351 -0.437076 -0.82582)
(0.824895 0.379638 -0.418836)
(-0.503129 -0.670472 0.545279)
(-0.35269 -0.743388 0.568317)
(0.538944 -0.702584 -0.464667)
(0.0148161 -0.827342 0.561502)
(0.439743 -0.772158 -0.458691)
(-0.578995 -0.783147 0.226815)
(-0.0319668 -0.825743 0.56314)
(-0.0139867 -0.740103 -0.672348)
(0.837711 0.350911 -0.418452)
)

// normal volume types

356
(
0
0
0
0
0
0
0
0
0
0
0
0
0
0
0
0
0
0
0
0
0
0
0
0
0
0
0
0
0
0
0
0
0
0
0
0
0
0
0
0
0
0
0
0
0
0
0
0
0
0
0
0
0
0
0
0
0
0
0
0
0
0
0
0
0
0
0
0
0
0
0
0
0
0
0
0
0
0
0
0
0
0
0
0
0
0
0
0
0
0
0
0
0
0
0
0
0
0
0
0
0
0
0
0
0
0
0
0
0
0
0
0
0
0
0
0
0
0
0
0
0
0
0
0
0
0
0
0
0
0
0
0
0
0
0
0
0
0
0
0
0
0
0
0
0
0
0
0
0
0
0
0
0
0
0
0
0
0
0
0
0
0
0
0
0
0
0
0
0
0
0
0
0
0
0
0
0
0
0
0
0
0
0
0
0
0
0
0
0
0
0
0
0
0
0
0
0
0
0
0
0
0
0
0
0
0
0
0
0
0
0
0
0
0
0
0
0
0
0
0
0
0
0
0
0
0
0
0
0
0
0
0
0
0
0
0
0
0
0
0
0
0
0
0
0
0
0
0
0
0
0
0
0
0
0
0
0
0
0
0
0
0
0
0
0
0
0
0
0
0
0
0
0
0
0
0
0
0
0
0
0
0
0
0
0
0
0
0
0
0
0
0
0
0
0
0
0
0
0
0
0
0
0
0
0
0
0
0
0
0
0
0
0
0
0
0
0
0
0
0
0
0
0
0
0
0
0
0
0
0
0
0
0
0
0
0
0
0
0
0
0
0
0
0
0
0
0
0
0
0
0
0
0
0
0
0
)

// normalDirections

289
(
2(1 -1)
2(1 -1)
2(1 -1)
2(1 -1)
2(1 -1)
2(1 -1)
2(1 -1)
2(1 -1)
2(1 -1)
2(1 -1)
2(1 -1)
2(1 -1)
2(1 -1)
2(1 -1)
2(1 -1)
2(1 -1)
2(1 -1)
2(1 -1)
2(1 -1)
2(1 -1)
2(1 -1)
2(1 -1)
2(1 -1)
2(1 -1)
2(1 -1)
2(1 -1)
2(1 -1)
2(1 -1)
2(1 -1)
2(1 -1)
2(1 -1)
2(1 -1)
2(1 -1)
2(1 -1)
2(1 -1)
2(1 -1)
2(1 -1)
2(1 -1)
2(1 -1)
2(1 -1)
2(1 -1)
2(1 -1)
2(1 -1)
2(1 -1)
2(1 -1)
2(1 -1)
2(1 -1)
2(1 -1)
2(1 -1)
2(1 -1)
2(1 -1)
2(1 -1)
2(1 -1)
2(1 -1)
2(1 -1)
2(1 -1)
2(1 -1)
2(1 -1)
2(1 -1)
2(1 -1)
2(1 -1)
2(1 -1)
2(1 -1)
2(1 -1)
2(1 -1)
2(1 -1)
2(1 -1)
2(1 -1)
2(1 -1)
2(1 -1)
2(1 -1)
2(1 -1)
2(1 -1)
2(1 -1)
2(1 -1)
2(1 -1)
2(1 -1)
2(1 -1)
2(1 -1)
2(1 -1)
2(1 -1)
2(1 -1)
2(1 -1)
2(1 -1)
2(1 -1)
2(1 -1)
2(1 -1)
2(1 -1)
2(1 -1)
2(1 -1)
2(1 -1)
2(1 -1)
2(1 -1)
2(1 -1)
2(1 -1)
2(1 -1)
2(1 -1)
2(1 -1)
2(1 -1)
2(1 -1)
2(1 -1)
2(1 -1)
2(1 -1)
2(1 -1)
2(1 -1)
2(1 -1)
2(1 -1)
2(1 -1)
2(1 -1)
2(1 -1)
2(1 -1)
2(1 -1)
2(1 -1)
2(1 -1)
2(1 -1)
2(1 -1)
2(1 -1)
2(1 -1)
2(1 -1)
2(1 -1)
2(1 -1)
2(1 -1)
2(1 -1)
2(1 -1)
2(1 -1)
2(1 -1)
2(1 -1)
2(1 -1)
2(1 -1)
2(1 -1)
2(1 -1)
2(1 -1)
2(1 -1)
2(1 -1)
2(1 -1)
2(1 -1)
2(1 -1)
2(1 -1)
2(1 -1)
2(1 -1)
2(1 -1)
2(1 -1)
2(1 -1)
2(1 -1)
2(1 -1)
2(1 -1)
2(1 -1)
2(1 -1)
2(1 -1)
2(1 -1)
2(1 -1)
2(1 -1)
2(1 -1)
2(1 -1)
2(1 -1)
2(1 -1)
2(1 -1)
2(1 -1)
2(1 -1)
2(1 -1)
2(1 -1)
2(1 -1)
2(1 -1)
2(1 -1)
2(1 -1)
2(1 -1)
2(1 -1)
2(1 -1)
2(1 -1)
2(1 -1)
2(1 -1)
2(1 -1)
2(1 -1)
2(1 -1)
2(1 -1)
2(1 -1)
2(1 -1)
2(1 -1)
2(1 -1)
2(1 -1)
2(1 -1)
2(1 -1)
2(1 -1)
2(1 -1)
2(1 -1)
2(1 -1)
2(1 -1)
2(1 -1)
2(1 -1)
2(1 -1)
2(1 -1)
2(1 -1)
2(1 -1)
2(1 -1)
2(1 -1)
2(1 -1)
2(1 -1)
2(1 -1)
2(1 -1)
2(1 -1)
2(1 -1)
2(1 -1)
2(1 -1)
2(1 -1)
2(1 -1)
2(1 -1)
2(1 -1)
2(1 -1)
2(1 -1)
2(1 -1)
2(1 -1)
2(1 -1)
2(1 -1)
2(1 -1)
2(1 -1)
2(1 -1)
2(1 -1)
2(1 -1)
2(1 -1)
2(1 -1)
2(1 -1)
2(1 -1)
2(1 -1)
2(1 -1)
2(1 -1)
2(1 -1)
2(1 -1)
2(1 -1)
2(1 -1)
2(1 -1)
2(1 -1)
2(1 -1)
2(1 -1)
2(1 -1)
2(1 -1)
2(1 -1)
2(1 -1)
2(1 -1)
2(1 -1)
2(1 -1)
2(1 -1)
2(1 -1)
2(1 -1)
2(1 -1)
2(1 -1)
2(1 -1)
2(1 -1)
2(1 -1)
2(1 -1)
2(1 -1)
2(1 -1)
2(1 -1)
2(1 -1)
2(1 -1)
2(1 -1)
2(1 -1)
2(1 -1)
2(1 -1)
2(1 -1)
2(1 -1)
2(1 -1)
2(1 -1)
2(1 -1)
2(1 -1)
2(1 -1)
2(1 -1)
2(1 -1)
2(1 -1)
2(1 -1)
2(1 -1)
2(1 -1)
2(1 -1)
2(1 -1)
2(1 -1)
2(1 -1)
2(1 -1)
2(1 -1)
2(1 -1)
2(1 -1)
2(1 -1)
2(1 -1)
2(1 -1)
2(1 -1)
2(1 -1)
2(1 -1)
2(1 -1)
2(1 -1)
2(1 -1)
2(1 -1)
)

// edgeNormals

289
(
2(0 1)
2(2 3)
2(4 5)
2(6 7)
2(7 8)
2(3 9)
2(10 11)
2(10 12)
2(13 14)
2(1 15)
2(9 16)
2(9 17)
2(18 19)
2(18 12)
2(14 20)
2(21 22)
2(23 24)
2(23 25)
2(19 26)
2(27 20)
2(28 29)
2(30 31)
2(32 33)
2(32 34)
2(35 36)
2(35 37)
2(38 39)
2(33 40)
2(41 42)
2(43 44)
2(45 46)
2(47 48)
2(49 50)
2(51 52)
2(36 37)
2(53 54)
2(46 55)
2(56 57)
2(58 59)
2(39 60)
2(61 62)
2(61 63)
2(64 65)
2(66 67)
2(68 69)
2(68 70)
2(71 72)
2(59 73)
2(74 75)
2(42 76)
2(77 78)
2(79 80)
2(81 82)
2(62 63)
2(83 84)
2(85 72)
2(86 87)
2(88 89)
2(90 91)
2(84 92)
2(84 93)
2(94 95)
2(65 96)
2(97 98)
2(97 91)
2(99 95)
2(100 101)
2(102 103)
2(102 104)
2(75 105)
2(105 106)
2(92 93)
2(107 108)
2(103 104)
2(109 110)
2(109 111)
2(101 112)
2(113 114)
2(115 116)
2(117 118)
2(119 120)
2(121 122)
2(121 123)
2(110 123)
2(124 125)
2(116 126)
2(112 127)
2(128 127)
2(129 130)
2(131 132)
2(133 134)
2(133 135)
2(136 137)
2(138 139)
2(140 141)
2(142 143)
2(144 145)
2(146 147)
2(148 149)
2(148 150)
2(149 150)
2(149 151)
2(152 153)
2(154 153)
2(155 156)
2(157 158)
2(157 159)
2(160 145)
2(161 162)
2(163 164)
2(165 166)
2(167 168)
2(169 170)
2(134 171)
2(172 173)
2(174 175)
2(174 176)
2(151 177)
2(158 159)
2(178 179)
2(177 180)
2(171 170)
2(175 176)
2(181 179)
2(156 182)
2(183 184)
2(179 180)
2(185 186)
2(187 188)
2(187 189)
2(190 191)
2(192 193)
2(194 195)
2(196 189)
2(197 198)
2(199 200)
2(201 202)
2(203 204)
2(203 205)
2(206 207)
2(206 208)
2(209 210)
2(209 208)
2(211 212)
2(213 214)
2(215 216)
2(217 218)
2(217 219)
2(220 221)
2(220 222)
2(223 224)
2(223 225)
2(226 227)
2(228 229)
2(228 230)
2(231 232)
2(233 234)
2(235 236)
2(237 238)
2(239 240)
2(232 241)
2(221 242)
2(204 243)
2(244 229)
2(244 245)
2(246 247)
2(246 242)
2(248 249)
2(245 250)
2(251 252)
2(253 254)
2(230 250)
2(255 256)
2(257 258)
2(225 259)
2(260 261)
2(260 262)
2(263 264)
2(265 254)
2(259 252)
2(266 267)
2(268 269)
2(270 271)
2(270 272)
2(261 262)
2(273 274)
2(275 276)
2(277 278)
2(277 279)
2(280 281)
2(282 283)
2(249 284)
2(205 285)
2(241 286)
2(287 288)
2(287 289)
2(243 290)
2(291 292)
2(291 293)
2(247 293)
2(294 295)
2(286 296)
2(292 272)
2(297 298)
2(289 299)
2(300 301)
2(302 303)
2(304 305)
2(306 307)
2(305 308)
2(309 279)
2(309 301)
2(258 296)
2(299 310)
2(11 16)
2(19 35)
2(30 47)
2(29 88)
2(43 78)
2(44 77)
2(311 46)
2(40 312)
2(53 64)
2(54 96)
2(313 314)
2(25 83)
2(65 315)
2(55 87)
2(70 316)
2(105 317)
2(92 318)
2(319 320)
2(321 117)
2(113 115)
2(322 323)
2(122 324)
2(116 325)
2(323 140)
2(324 326)
2(326 140)
2(138 152)
2(139 327)
2(139 328)
2(327 126)
2(327 329)
2(126 132)
2(132 329)
2(330 147)
2(146 148)
2(329 328)
2(150 174)
2(143 156)
2(127 167)
2(331 165)
2(332 151)
2(178 176)
2(159 181)
2(177 175)
2(181 333)
2(334 335)
2(336 180)
2(173 166)
2(166 337)
2(194 338)
2(339 340)
2(340 207)
2(341 215)
2(199 223)
2(342 343)
2(344 203)
2(201 224)
2(345 346)
2(215 202)
2(191 233)
2(347 235)
2(348 236)
2(349 350)
2(216 351)
2(352 353)
2(255 354)
2(270 261)
2(355 277)
2(273 282)
2(274 287)
2(264 256)
2(271 281)
2(278 302)
2(278 309)
2(303 308)
)

// featurePointNormals

159
(
5(0 1 4 5 15)
6(0 1 2 3 7 8)
4(2 3 9 16)
3(4 5 14)
4(7 8 30 31)
4(3 9 17 28)
3(10 11 12)
3(10 12 14)
3(18 19 12)
3(14 20 27)
4(21 22 23 24)
4(23 25 43 44)
4(32 34 81 82)
4(32 33 113 114)
5(32 33 34 40 50)
3(35 36 37)
5(38 39 47 48 60)
3(36 37 54)
5(56 57 90 91 97)
5(58 59 73 79 80)
4(58 59 77 78)
3(61 62 63)
6(68 69 74 75 105 106)
3(71 72 85)
3(81 82 136)
3(62 63 84)
3(85 72 87)
3(84 92 93)
5(97 98 91 129 130)
3(100 101 112)
3(102 103 104)
3(109 110 111)
4(101 112 127 128)
3(121 122 123)
4(169 170 199 200)
3(133 135 163)
4(133 134 135 171)
3(148 149 150)
4(154 153 197 198)
3(155 156 182)
3(157 158 159)
4(161 162 185 186)
4(163 164 192 193)
4(167 168 183 184)
4(169 170 134 171)
3(174 175 176)
4(171 170 237 238)
3(187 188 189)
5(197 198 228 229 244)
4(203 204 205 243)
3(206 207 208)
3(209 210 208)
5(211 212 241 257 258)
6(263 264 268 269 275 276)
5(204 243 253 254 290)
3(220 221 222)
6(223 224 225 251 252 259)
4(228 229 230 250)
4(231 232 241 286)
4(237 238 225 259)
3(221 242 246)
4(244 229 245 250)
3(246 247 242)
4(273 274 294 295)
3(248 249 284)
6(245 250 253 254 230 265)
4(255 256 280 281)
5(257 258 296 299 310)
3(260 261 262)
3(270 271 272)
4(205 285 243 290)
4(241 286 296 258)
3(294 295 307)
4(287 288 289 299)
3(291 292 293)
5(289 299 305 308 310)
3(297 298 306)
3(300 301 309)
4(319 320 113 115)
4(323 140 324 326)
4(139 327 328 329)
4(327 126 329 132)
5(173 166 337 347 235)
4(194 338 345 346)
4(349 350 216 351)
3(10 11 16)
8(9 16 17 18 19 35 36 64)
5(23 24 25 61 62)
3(19 26 35)
6(39 60 66 67 44 77)
6(64 65 88 89 29 315)
8(28 29 45 46 55 30 47 88)
4(30 31 47 48)
3(45 46 311)
5(33 40 312 319 320)
6(109 110 43 78 324 326)
4(43 44 77 78)
5(46 55 86 87 311)
5(53 54 64 65 96)
5(66 67 68 70 316)
6(90 91 313 314 331 165)
5(83 84 92 25 318)
9(88 89 102 103 140 141 55 322 323)
4(65 96 315 117)
4(142 143 155 156)
3(115 116 325)
3(75 105 317)
3(105 106 317)
3(146 147 330)
3(92 93 109)
3(107 108 117)
8(113 114 115 116 126 138 139 327)
3(128 127 167)
4(152 153 154 138)
4(121 122 323 324)
4(112 127 167 168)
5(116 126 131 132 325)
5(129 130 165 166 173)
8(131 132 152 153 329 328 334 335)
7(136 137 148 149 151 146 332)
7(140 141 142 143 326 339 340)
4(138 139 152 328)
6(157 159 330 147 181 333)
9(146 147 148 150 157 158 174 176 178)
6(149 150 151 174 175 177)
3(156 182 143)
4(165 166 331 337)
5(151 177 180 332 336)
4(223 224 199 201)
5(158 159 178 179 181)
6(178 179 177 180 175 176)
8(181 179 180 203 204 333 336 344)
6(183 184 203 205 285 344)
5(201 202 334 341 215)
7(190 191 220 221 342 343 233)
3(194 195 217)
6(209 210 339 340 255 354)
4(206 207 340 342)
5(215 216 244 245 341)
4(199 200 223 225)
6(226 227 345 346 273 282)
3(201 202 224)
4(215 216 251 252)
5(217 218 277 279 355)
5(226 227 233 234 191)
3(287 288 274)
4(235 236 347 348)
5(248 249 348 236 350)
5(263 264 352 353 256)
4(255 256 354 264)
6(286 296 300 301 303 308)
6(260 261 270 271 280 281)
3(270 272 261)
4(277 278 355 302)
6(273 274 282 283 287 289)
4(277 278 279 309)
5(291 292 297 298 281)
5(302 303 309 301 278)
5(302 303 304 305 308)
)

// featurePointEdges

159
(
3(2 9 0)
4(1 4 3 0)
3(1 5 10)
2(8 2)
2(4 21)
3(20 11 5)
3(6 13 7)
3(8 14 7)
3(12 18 13)
2(19 14)
2(15 16)
2(17 29)
2(23 52)
2(22 77)
4(22 27 32 23)