FoamFile
{
    version     2.0;
    format      ascii;
    class       dictionary;
    object      fvSolution;
}

solvers
{
    p
    {
        solver GAMG;
        tolerance 1e-7;
        relTol 0.1;
        smoother GaussSeidel;
    }

    U
    {
        solver smoothSolver;
        smoother symGaussSeidel;
        tolerance 1e-8;
        relTol 0.1;
    }

    "(k|omega)"
    {
        solver smoothSolver;
        smoother symGaussSeidel;
        tolerance 1e-8;
        relTol 0.1;
    }
}

SIMPLE
{
    nNonOrthogonalCorrectors 2;
    pRefCell 0;
    pRefValue 0;
    consistent yes;

    residualControl
    {
        p               1e-4;
        U               1e-4;
        "(k|omega)"     1e-4;
    }
}

relaxationFactors
{
    fields
    {
        p 0.3;
    }

    equations
    {
        U 0.5;
        k 0.5;
        omega 0.5;
    }
}
