FoamFile
{
    version 2.0;
    format ascii;
    class volVectorField;
    object U;
}

dimensions [0 1 -1 0 0 0 0];

internalField uniform (10 0 0);

boundaryField
{
    inlet
    {
        type fixedValue;
        value uniform (10 0 0);
    }

    outlet
    {
        type zeroGradient;
    }

    top
    {
        type slip;
    }

    bottom
    {
        type slip;
    }

    side1
    {
        type slip;
    }

    side2
    {
        type slip;
    }

    corpo
    {
        type noSlip;
    }
}

