/*--------------------------------*- C++ -*----------------------------------*\
  =========                 |
  \\      /  F ield         | OpenFOAM: The Open Source CFD Toolbox
   \\    /   O peration     | Website:  https://openfoam.org
    \\  /    A nd           | Version:  13
     \\/     M anipulation  |
\*---------------------------------------------------------------------------*/
FoamFile
{
    format      ascii;
    class       featureEdgeMesh;
    location    "constant/geometry";
    object      corpo.eMesh;
}
// * * * * * * * * * * * * * * * * * * * * * * * * * * * * * * * * * * * * * //


// points:

206
(
(-0.0361475 0.0362937 0.00975594)
(-0.0240255 0.0410023 0.0141872)
(-0.0175316 0.0384295 0.00829625)
(-0.0323152 0.0362154 0.00226645)
(-0.0210135 0.0358852 0.0212727)
(-0.0149111 0.0358556 0.01166)
(-0.0167291 0.0387103 -0.00123956)
(-0.0174108 0.0385811 -0.00123956)
(-0.0164349 0.0382232 -0.00123956)
(-0.0326815 0.0292784 -0.00123956)
(0.0136215 0.0314855 0.00748325)
(0.0167804 0.0307703 0.0188603)
(-0.0182394 0.0300381 0.0659352)
(0.00223018 0.0237257 0.0653364)
(-0.0170027 0.0313487 0.052838)
(-0.0135739 0.0291437 -0.00123956)
(0.00252903 0.0268541 0.0388978)
(-0.0139263 0.0277837 -0.00123956)
(-0.0427038 0.0198196 0.027681)
(0.0298624 0.0265525 0.0374698)
(0.0270121 0.0219566 0.0278468)
(0.0261555 0.027918 -0.00123956)
(0.0232724 0.026121 0.068793)
(0.0119724 0.0242729 -0.00123956)
(-0.00757095 0.0199332 0.0758753)
(0.0267193 0.027296 -0.00123956)
(0.011829 0.0239543 -0.00123956)
(0.0273484 0.0202621 -0.00123956)
(-0.0487337 0.0142637 0.0200939)
(-0.043174 0.0177997 0.0456041)
(0.0120503 0.0229921 -0.00123956)
(0.0251988 0.0183636 -0.00123956)
(-0.0480499 0.00978632 0.0502752)
(0.0243385 0.0179844 -0.00123956)
(0.0284468 -0.00387194 0.0645959)
(0.0505679 -0.000536879 0.0353075)
(0.0434013 0.00346268 0.0505328)
(-0.0321664 0.00493701 0.0897789)
(0.000687861 -0.0119714 0.07759)
(0.0300402 -0.00475368 0.0173826)
(-0.0372639 -0.00101509 0.086122)
(-0.0184013 -0.00769361 0.0025859)
(0.0506366 -0.00608648 0.0321877)
(-0.0497204 -0.00735201 0.0502133)
(0.0388128 -0.00587405 0.057325)
(-0.0282197 -0.00370954 0.0934202)
(0.0383181 -0.0178658 0.0517891)
(-0.0390762 -0.0148583 -0.00123956)
(0.00326495 -0.0197982 0.0707854)
(-0.038134 -0.0209367 0.0642622)
(0.0218976 -0.0231685 -0.00123956)
(0.0226388 -0.0235562 -0.00123956)
(-0.0449526 -0.0255004 0.0134436)
(0.0280727 -0.0329149 0.0377058)
(-0.0203078 -0.03353 0.0621543)
(0.0150803 -0.0230101 -0.00123956)
(0.0209142 -0.030769 0.0698368)
(-0.000367511 -0.0252704 0.0715317)
(-0.0397396 -0.0281522 0.000959117)
(0.0265543 -0.026087 0.0588801)
(0.00981034 -0.0281052 -0.00123956)
(0.00373924 -0.0244144 0.0623475)
(0.00962276 -0.0291629 -0.00123956)
(-0.00184783 -0.0316451 0.0332987)
(-0.0173386 -0.0310768 0.0483978)
(-0.00418977 -0.0298919 0.0639222)
(0.0155507 -0.0330107 0.0180791)
(-0.0372237 -0.0385691 0.0112798)
(0.0241002 -0.0279819 -0.00123956)
(0.0211656 -0.0310894 -0.00123956)
(-0.025051 -0.0326278 0.0532564)
(-0.0341185 -0.0361449 0.00247496)
(0.00803891 -0.0359911 0.0214023)
(-0.0266786 -0.0341073 0.0251396)
(0.0188406 -0.032536 -0.00123956)
(-0.0227568 -0.0399522 0.0146024)
(0.00877522 -0.035942 0.0093401)
(-0.018383 -0.0391059 -0.000730451)
(-0.000749427 0.0155856 0.0500563)
(0.00958068 0.00902726 0.0154738)
(0.0034963 0.00595414 0.0588874)
(0.00704328 0.00647182 0.0579852)
(-0.0354841 -0.0157775 0.0391334)
(-0.0246858 -0.0182067 0.00543824)
(-0.000848998 -0.0199866 0.0504505)
(-0.0226666 0.0383077 0.00428812)
(-0.0156257 0.0318301 0.00148943)
(0.0217106 0.0278971 0.00145521)
(-0.0167146 0.0321445 -0.00123956)
(0.00757551 0.024726 0.0396687)
(-0.0157416 0.0229345 0.00997312)
(-0.0153753 0.0283843 0.0198956)
(-0.0232207 0.0290614 0.0269858)
(-0.000565226 0.0287837 0.0267227)
(-0.0112815 0.0216238 0.0438102)
(0.0182415 0.0179933 0.0244716)
(0.0179942 0.022503 0.0294273)
(-0.000950243 0.0257791 0.0178078)
(-0.0167964 0.0258363 0.00110965)
(0.0148362 0.0241557 0.0535613)
(-0.0354838 0.0154167 0.037981)
(0.0246081 0.0210763 0.00343903)
(0.0071062 0.0152334 0.00913114)
(-0.0248832 0.0176214 0.00407063)
(0.031884 0.00910468 0.0211336)
(0.0077325 0.0168817 0.055548)
(0.0281594 0.0166524 0.0605139)
(0.0210646 0.00908437 0.064875)
(-0.0270507 0.00663886 0.0819138)
(0.0253443 0.0189626 -0.00123956)
(-0.0366605 0.0184144 -0.00123956)
(0.00728234 0.0136309 0.062828)
(-0.0464491 0.00931191 0.0588719)
(0.00341227 0.00665876 0.0772072)
(0.0100962 0.0132957 0.0139095)
(-0.0467461 -0.0010283 0.0427692)
(0.01039 0.00883783 0.0622557)
(-0.0489457 0.00523162 0.0258621)
(0.0096454 -0.00147385 0.0649527)
(-0.0243269 0.00286957 0.0854666)
(0.0157644 -0.00480548 0.0118361)
(0.00556603 0.00453506 0.0655835)
(-0.0342471 0.000568423 0.0799639)
(-0.0341163 0.00318036 0.086303)
(-0.0274056 0.000883074 0.0909902)
(0.0220778 -0.00882724 0.0170589)
(-0.0415911 -0.00539358 0.0386255)
(-0.0213351 -0.00517832 0.084737)
(0.0159609 -0.0141031 0.0641118)
(-0.0342112 -0.00230442 0.0876229)
(-0.0292346 -0.00618739 0.0897421)
(-0.0306871 -0.00852313 0.0799929)
(-0.0427403 -0.0226777 0.0531719)
(0.0058963 -0.00998625 0.0620121)
(0.00315877 -0.0198674 0.00903273)
(-0.0350711 -0.0182261 -0.00123956)
(0.0146276 -0.0195618 0.0207329)
(0.0104874 -0.0173239 0.0126657)
(0.00269745 -0.0211852 0.0558682)
(0.0258184 -0.0181818 0.0631363)
(-0.017414 -0.0259967 0.0126991)
(0.0112685 -0.0222704 0.060373)
(0.00772858 -0.0257925 0.0523001)
(-0.0231159 -0.0287238 -0.00100252)
(-0.00615961 -0.0293888 0.0204271)
(-0.0310116 -0.0281981 0.0279879)
(-0.029107 -0.0208642 0.038763)
(-0.0128866 -0.0247696 0.0437207)
(0.00609523 -0.0287119 0.0380508)
(0.0150607 -0.0266803 0.0285597)
(-0.0259808 -0.036338 -0.000857751)
(0.0222176 -0.0268298 0.00170339)
(0.0226931 -0.02834 -0.00123956)
(-0.0197374 -0.0325714 0.00253429)
(-0.0218422 -0.0301828 0.0253718)
(-0.017581 -0.0307195 -0.00102007)
(0.0137785 -0.0331647 0.000818164)
(-0.0207291 -0.037368 0.00122885)
(-0.0179238 -0.0373741 0.0106855)
(-0.0299592 0.0359372 0.0212583)
(-0.0394875 0.0315769 0.0191904)
(0.00867069 0.0329237 0.0215106)
(-0.0336999 0.0274058 -0.00123956)
(-0.0202676 0.0259166 -0.00123956)
(-0.0270021 0.0236071 -0.000543609)
(-0.0334283 0.0238787 0.0441391)
(0.0153043 0.0250497 -0.00123956)
(0.0127127 0.0247283 -0.00123956)
(0.0207579 0.0258112 0.066824)
(0.0410659 0.0176653 0.033744)
(0.0274403 0.0230561 0.0539164)
(-0.0377945 0.0190471 -0.00123956)
(-0.0404414 0.0291174 0.00665811)
(-0.0378718 0.0183948 -0.00123956)
(-0.0400465 0.023522 0.0526158)
(-0.0334991 0.0204779 -0.00123956)
(0.0235137 0.018035 -0.00123956)
(-0.0354282 0.0176256 -0.00123956)
(-0.0166333 0.0103771 0.00252518)
(0.0473621 0.00451002 0.0287028)
(0.0364732 0.0120132 0.0550854)
(-0.0380228 0.0178778 -0.00123956)
(-0.038117 0.0163522 -0.00123956)
(-0.00941401 -0.0117669 0.00387054)
(-0.0498685 -0.00630353 0.0249948)
(-0.0318215 -0.0150368 -0.00123956)
(-0.0429744 -0.00558172 0.0033373)
(-0.0347146 -0.00038674 -0.00123956)
(0.039275 -0.0239955 0.0321865)
(-0.0384227 -0.0181823 -0.00123956)
(0.020489 -0.0233074 -0.00123956)
(-0.0468343 -0.0176467 0.0170857)
(-0.0384014 -0.0189709 -0.00123956)
(-0.0249293 -0.0274154 -0.00123956)
(-0.00659474 -0.019162 0.0777644)
(-0.0385553 -0.0225049 -0.00123956)
(0.000719721 -0.0315373 0.0095005)
(-0.0321465 -0.026298 0.0448396)
(0.0228707 -0.0249114 -0.00123956)
(-0.0122149 -0.0325945 0.0563312)
(0.0219897 -0.0300088 0.0565184)
(0.0311434 -0.0292766 0.0310831)
(-0.0181103 -0.0339236 0.0194842)
(0.011583 -0.0303491 -0.00123956)
(-0.020893 0.0213749 0.0420245)
(0.0145658 0.0144085 0.0623155)
)


// edges:

289
(
(0 1)
(1 2)
(3 0)
(159 1)
(4 1)
(5 2)
(85 6)
(6 7)
(7 3)
(0 160)
(86 2)
(5 86)
(86 8)
(8 6)
(7 9)
(161 10)
(87 10)
(11 87)
(88 8)
(9 162)
(91 5)
(4 92)
(13 14)
(14 12)
(86 15)
(15 88)
(16 161)
(94 14)
(163 164)
(11 96)
(93 91)
(92 16)
(165 14)
(166 167)
(17 15)
(98 17)
(97 91)
(160 18)
(19 20)
(16 89)
(87 21)
(21 166)
(90 98)
(89 99)
(168 22)
(99 168)
(167 23)
(19 169)
(22 170)
(163 17)
(20 96)
(170 19)
(12 24)
(25 21)
(101 25)
(23 26)
(26 97)
(102 90)
(18 100)
(101 27)
(27 25)
(162 171)
(103 98)
(172 28)
(28 18)
(171 173)
(29 174)
(30 102)
(26 30)
(22 106)
(22 107)
(109 27)
(110 175)
(30 176)
(95 31)
(31 109)
(29 32)
(13 111)
(111 105)
(177 110)
(178 177)
(33 114)
(176 33)
(33 31)
(179 169)
(111 116)
(115 32)
(32 112)
(28 117)
(116 118)
(180 36)
(36 35)
(24 119)
(121 111)
(120 102)
(104 120)
(173 181)
(108 123)
(37 119)
(123 37)
(37 124)
(124 119)
(113 118)
(38 113)
(39 104)
(40 123)
(122 40)
(181 182)
(183 41)
(35 42)
(117 126)
(115 43)
(34 44)
(44 36)
(184 117)
(45 124)
(123 45)
(124 127)
(40 129)
(129 130)
(130 127)
(44 46)
(45 130)
(131 129)
(39 125)
(43 132)
(131 130)
(41 185)
(47 186)
(187 47)
(134 183)
(188 42)
(135 185)
(47 189)
(38 48)
(139 34)
(133 141)
(49 131)
(132 49)
(137 50)
(50 190)
(136 51)
(51 50)
(52 191)
(189 192)
(138 142)
(143 193)
(193 135)
(55 134)
(190 55)
(128 56)
(56 139)
(144 140)
(57 48)
(194 57)
(58 195)
(196 144)
(146 197)
(59 46)
(192 195)
(58 52)
(55 60)
(49 54)
(48 61)
(61 138)
(62 196)
(60 62)
(147 64)
(61 65)
(142 56)
(54 65)
(65 57)
(149 66)
(52 67)
(56 59)
(151 68)
(68 198)
(148 53)
(65 199)
(56 200)
(198 51)
(200 53)
(151 69)
(69 152)
(152 68)
(63 154)
(201 53)
(153 155)
(155 143)
(66 151)
(154 202)
(199 64)
(132 70)
(58 71)
(145 73)
(73 154)
(70 54)
(74 156)
(203 74)
(62 203)
(72 63)
(150 71)
(74 69)
(156 76)
(73 75)
(77 150)
(158 157)
(202 158)
(76 72)
(75 158)
(77 155)
(157 77)
(71 67)
(67 75)
(85 86)
(86 88)
(92 91)
(91 90)
(96 95)
(89 96)
(97 93)
(94 204)
(86 98)
(98 164)
(100 204)
(101 87)
(90 103)
(97 102)
(99 205)
(107 106)
(101 109)
(78 94)
(103 110)
(111 78)
(114 102)
(95 114)
(116 105)
(79 102)
(95 79)
(120 79)
(113 121)
(80 111)
(121 80)
(81 111)
(80 81)
(81 116)
(81 118)
(122 108)
(123 119)
(80 118)
(123 124)
(104 125)
(115 112)
(100 126)
(119 127)
(130 123)
(122 129)
(124 130)
(122 131)
(133 118)
(127 131)
(82 117)
(82 126)
(83 135)
(136 120)
(136 137)
(138 133)
(128 139)
(137 134)
(132 131)
(141 128)
(140 83)
(142 133)
(134 144)
(146 82)
(147 146)
(147 84)
(138 84)
(84 148)
(136 149)
(152 151)
(153 143)
(154 140)
(145 154)
(148 149)
(151 156)
(153 157)
(157 155)
(158 150)
)

// * * * * * * * * * * * * * * * * * * * * * * * * * * * * * * * * * * * * * //


// ************************************************************************* //
